<?xml version="1.0" encoding="UTF-8"?>

<!-- generated on 2023-12-06 15:08:39 by Eclipse SUMO polyconvert Version 1.19.0
<configuration xmlns:xsi="http://www.w3.org/2001/XMLSchema-instance" xsi:noNamespaceSchemaLocation="http://sumo.dlr.de/xsd/polyconvertConfiguration.xsd">

    <input>
        <net-file value="ghaziabad.net.xml"/>
        <osm-files value="ghaziabad.osm"/>
        <type-file value="osmPolyconvert.typ.xml"/>
    </input>

    <output>
        <output-file value="ghaziabad.poly.xml"/>
    </output>

</configuration>
-->

<additional xmlns:xsi="http://www.w3.org/2001/XMLSchema-instance" xsi:noNamespaceSchemaLocation="http://sumo.dlr.de/xsd/additional_file.xsd">
    <location netOffset="-744938.44,-3174844.25" convBoundary="-30371.79,-8901.01,9402.32,35539.65" origBoundary="77.202728,28.595637,77.600785,29.003475" projParameter="+proj=utm +zone=43 +ellps=WGS84 +datum=WGS84 +units=m +no_defs"/>

    <poly id="150528523" type="water" color="181,209,209" fill="0" layer="-4.00" shape="3062.715988,1141.451306 3052.085824,1033.479041 3044.448418,936.504787 3042.988648,881.935340 3041.605324,737.353695 3041.989210,558.875683 3040.925507,374.877604 3041.489465,200.318125 3040.518453,23.885181 3043.264612,-302.521057 3041.129174,-461.490449 3047.431549,-868.741061 3048.810375,-1056.878649 3053.293886,-1243.386564 3059.078229,-1416.559374 3060.900310,-1588.773965 3060.962987,-1739.889320 3059.769161,-2165.097228 3062.300744,-2271.790915 3081.619913,-2378.127818 3108.959099,-2541.471687 3125.613259,-2633.770446 3141.039750,-2692.693729 3189.202301,-2848.031843 3237.759230,-2996.563592 3285.477549,-3155.293215 3329.981076,-3298.965014 3342.735147,-3331.052939 3361.094577,-3367.734675 3405.587444,-3448.750824 3422.850959,-3483.104829 3448.246912,-3529.550797 3511.911267,-3648.539560 3619.993264,-3844.364492 3622.500422,-3854.602194"/>
    <poly id="908540024" type="landuse" color="194,194,130" fill="1" layer="-3.00" shape="2906.053459,1659.471392 3089.280316,1701.728825 3095.080183,1700.288652 3097.168862,1688.068055 3081.814993,1522.307159 3077.848820,1486.747244 2911.028408,1487.633799 2906.053459,1659.471392"/>
    <poly id="955935149" type="water" color="181,209,209" fill="0" layer="-4.00" shape="3390.757404,4173.348217 3076.913023,3994.225511 2885.825583,3876.554663 2756.745916,3759.407835 2705.481914,3704.045051 2651.841177,3616.061973 2588.401285,3488.159241 2545.592399,3358.721507 2537.647473,3186.021576 2550.778159,3086.638915 2569.741912,2987.446760 2592.532976,2888.058722 2652.860179,2745.409798 3118.604838,1925.441900 3130.047442,1905.591217 3136.858102,1881.472243 3137.049698,1860.073451 3134.899213,1825.594550 3120.594419,1746.099395 3116.134751,1690.556623 3107.588533,1605.572795 3098.028502,1500.218072 3067.563585,1190.747716"/>
    <poly id="955935150" type="water" color="181,209,209" fill="0" layer="-4.00" shape="3067.563585,1190.747716 3062.715988,1141.451306"/>
</additional>
