<?xml version="1.0" encoding="UTF-8"?>

<!-- generated on 2023-12-06 15:07:02 by Eclipse SUMO netconvert Version 1.19.0
<configuration xmlns:xsi="http://www.w3.org/2001/XMLSchema-instance" xsi:noNamespaceSchemaLocation="http://sumo.dlr.de/xsd/netconvertConfiguration.xsd">

    <input>
        <osm-files value="ghaziabad.osm"/>
    </input>

    <output>
        <output-file value="ghaziabad.net.xml"/>
    </output>

    <projection>
        <proj.utm value="true"/>
    </projection>

</configuration>
-->

<net version="1.16" junctionCornerDetail="5" limitTurnSpeed="5.50" xmlns:xsi="http://www.w3.org/2001/XMLSchema-instance" xsi:noNamespaceSchemaLocation="http://sumo.dlr.de/xsd/net_file.xsd">

    <location netOffset="-744938.44,-3174844.25" convBoundary="0.00,0.00,4777.96,1699.09" origBoundary="77.506700,28.642193,77.555765,28.714629" projParameter="+proj=utm +zone=43 +ellps=WGS84 +datum=WGS84 +units=m +no_defs"/>

    <type id="highway.motorway" priority="14" numLanes="2" speed="39.44" allow="private emergency authority army vip passenger hov taxi bus coach delivery truck trailer motorcycle evehicle custom1 custom2" oneway="1"/>
    <type id="highway.motorway_link" priority="9" numLanes="1" speed="22.22" allow="private emergency authority army vip passenger hov taxi bus coach delivery truck trailer motorcycle evehicle custom1 custom2" oneway="1"/>
    <type id="highway.path" priority="1" numLanes="1" speed="5.56" allow="pedestrian bicycle" oneway="0" width="2.00"/>
    <type id="highway.residential" priority="3" numLanes="1" speed="13.89" disallow="tram rail_urban rail rail_electric rail_fast ship" oneway="0"/>
    <type id="highway.secondary" priority="11" numLanes="1" speed="27.78" disallow="tram rail_urban rail rail_electric rail_fast ship" oneway="0"/>
    <type id="highway.service" priority="1" numLanes="1" speed="5.56" allow="pedestrian delivery bicycle" oneway="0"/>
    <type id="highway.trunk" priority="13" numLanes="2" speed="27.78" disallow="pedestrian bicycle tram rail_urban rail rail_electric rail_fast ship" oneway="0"/>
    <type id="highway.trunk_link" priority="8" numLanes="1" speed="22.22" disallow="pedestrian bicycle tram rail_urban rail rail_electric rail_fast ship" oneway="0"/>
    <type id="highway.unclassified" priority="4" numLanes="1" speed="13.89" disallow="tram rail_urban rail rail_electric rail_fast ship" oneway="0"/>

    <edge id=":433035875_0" function="internal">
        <lane id=":433035875_0_0" index="0" disallow="pedestrian bicycle tram rail_urban rail rail_electric rail_fast ship" speed="19.44" length="8.35" shape="1865.61,901.75 1857.67,899.50"/>
        <lane id=":433035875_0_1" index="1" disallow="pedestrian bicycle tram rail_urban rail rail_electric rail_fast ship" speed="19.44" length="8.35" shape="1866.52,898.69 1858.40,896.38"/>
    </edge>
    <edge id=":433035875_2" function="internal">
        <lane id=":433035875_2_0" index="0" allow="private emergency authority army vip passenger hov taxi bus coach delivery truck trailer motorcycle evehicle custom1 custom2" speed="9.22" length="7.96" shape="1865.91,894.40 1863.84,895.55 1861.90,896.27 1860.09,896.55 1858.40,896.38"/>
    </edge>
    <edge id=":4849415831_0" function="internal">
        <lane id=":4849415831_0_0" index="0" allow="private emergency authority army vip passenger hov taxi bus coach delivery truck trailer motorcycle evehicle custom1 custom2" speed="33.33" length="15.39" shape="2476.78,922.60 2477.14,918.14 2476.95,915.06 2476.64,911.97 2476.69,907.48"/>
        <lane id=":4849415831_0_1" index="1" allow="private emergency authority army vip passenger hov taxi bus coach delivery truck trailer motorcycle evehicle custom1 custom2" speed="33.33" length="15.39" shape="2479.95,923.05 2480.32,918.52 2480.13,915.39 2479.83,912.25 2479.88,907.69"/>
        <lane id=":4849415831_0_2" index="2" allow="private emergency authority army vip passenger hov taxi bus coach delivery truck trailer motorcycle evehicle custom1 custom2" speed="33.33" length="15.39" shape="2483.12,923.50 2483.50,918.89 2483.32,915.72 2483.02,912.53 2483.07,907.90"/>
    </edge>
    <edge id=":4849415831_3" function="internal">
        <lane id=":4849415831_3_0" index="0" allow="private emergency authority army vip passenger hov taxi bus coach delivery truck trailer motorcycle evehicle custom1 custom2" speed="27.78" length="15.39" shape="2483.12,923.50 2483.99,918.64 2484.97,915.02 2486.03,911.93 2487.16,908.68"/>
    </edge>
    <edge id=":4849415836_0" function="internal">
        <lane id=":4849415836_0_0" index="0" allow="private emergency authority army vip passenger hov taxi bus coach delivery truck trailer motorcycle evehicle custom1 custom2" speed="33.33" length="0.29" shape="2439.69,1024.29 2439.64,1024.62"/>
        <lane id=":4849415836_0_1" index="1" allow="private emergency authority army vip passenger hov taxi bus coach delivery truck trailer motorcycle evehicle custom1 custom2" speed="33.33" length="0.29" shape="2436.51,1023.88 2436.47,1024.16"/>
        <lane id=":4849415836_0_2" index="2" allow="private emergency authority army vip passenger hov taxi bus coach delivery truck trailer motorcycle evehicle custom1 custom2" speed="33.33" length="0.29" shape="2433.34,1023.48 2433.31,1023.71"/>
    </edge>
    <edge id=":4849415837_0" function="internal">
        <lane id=":4849415837_0_0" index="0" allow="private emergency authority army vip passenger hov taxi bus coach delivery truck trailer motorcycle evehicle custom1 custom2" speed="33.33" length="0.30" shape="2461.68,1029.59 2461.72,1029.31"/>
        <lane id=":4849415837_0_1" index="1" allow="private emergency authority army vip passenger hov taxi bus coach delivery truck trailer motorcycle evehicle custom1 custom2" speed="33.33" length="0.30" shape="2464.84,1030.05 2464.89,1029.76"/>
        <lane id=":4849415837_0_2" index="2" allow="private emergency authority army vip passenger hov taxi bus coach delivery truck trailer motorcycle evehicle custom1 custom2" speed="33.33" length="0.30" shape="2468.01,1030.51 2468.05,1030.20"/>
    </edge>
    <edge id=":4849415849_0" function="internal">
        <lane id=":4849415849_0_0" index="0" allow="private emergency authority army vip passenger hov taxi bus coach delivery truck trailer motorcycle evehicle custom1 custom2" speed="33.33" length="0.30" shape="2430.62,1087.00 2430.57,1087.32"/>
        <lane id=":4849415849_0_1" index="1" allow="private emergency authority army vip passenger hov taxi bus coach delivery truck trailer motorcycle evehicle custom1 custom2" speed="33.33" length="0.30" shape="2427.45,1086.54 2427.41,1086.83"/>
        <lane id=":4849415849_0_2" index="2" allow="private emergency authority army vip passenger hov taxi bus coach delivery truck trailer motorcycle evehicle custom1 custom2" speed="33.33" length="0.30" shape="2424.28,1086.08 2424.24,1086.35"/>
    </edge>
    <edge id=":4849415850_0" function="internal">
        <lane id=":4849415850_0_0" index="0" allow="private emergency authority army vip passenger hov taxi bus coach delivery truck trailer motorcycle evehicle custom1 custom2" speed="33.33" length="0.30" shape="2452.58,1092.21 2452.62,1091.95"/>
        <lane id=":4849415850_0_1" index="1" allow="private emergency authority army vip passenger hov taxi bus coach delivery truck trailer motorcycle evehicle custom1 custom2" speed="33.33" length="0.30" shape="2455.75,1092.70 2455.79,1092.41"/>
        <lane id=":4849415850_0_2" index="2" allow="private emergency authority army vip passenger hov taxi bus coach delivery truck trailer motorcycle evehicle custom1 custom2" speed="33.33" length="0.30" shape="2458.91,1093.19 2458.96,1092.87"/>
    </edge>
    <edge id=":5174502570_0" function="internal">
        <lane id=":5174502570_0_0" index="0" disallow="tram rail_urban rail rail_electric rail_fast ship" speed="3.65" length="4.67" shape="1981.59,1.34 1981.03,0.01 1981.14,-0.88 1981.91,-1.33 1983.35,-1.34"/>
    </edge>
    <edge id=":5372160329_0" function="internal">
        <lane id=":5372160329_0_0" index="0" disallow="tram rail_urban rail rail_electric rail_fast ship" speed="5.97" length="9.08" shape="2175.50,559.61 2174.69,557.14 2173.33,555.76 2171.41,555.48 2168.94,556.30"/>
    </edge>
    <edge id=":5372160329_1" function="internal">
        <lane id=":5372160329_1_0" index="0" disallow="tram rail_urban rail rail_electric rail_fast ship" speed="13.89" length="14.66" shape="2175.50,559.61 2173.05,545.16"/>
    </edge>
    <edge id=":5372160329_2" function="internal">
        <lane id=":5372160329_2_0" index="0" disallow="tram rail_urban rail rail_electric rail_fast ship" speed="3.65" length="1.44" shape="2175.50,559.61 2176.08,558.29"/>
    </edge>
    <edge id=":5372160329_9" function="internal">
        <lane id=":5372160329_9_0" index="0" disallow="tram rail_urban rail rail_electric rail_fast ship" speed="3.65" length="3.23" shape="2176.08,558.29 2176.80,557.76 2177.66,558.02 2178.65,559.06"/>
    </edge>
    <edge id=":5372160329_3" function="internal">
        <lane id=":5372160329_3_0" index="0" disallow="tram rail_urban rail rail_electric rail_fast ship" speed="13.89" length="14.62" shape="2176.21,544.65 2178.65,559.06"/>
    </edge>
    <edge id=":5372160329_4" function="internal">
        <lane id=":5372160329_4_0" index="0" disallow="tram rail_urban rail rail_electric rail_fast ship" speed="9.23" length="3.64" shape="2176.21,544.65 2176.21,548.17 2176.16,548.28"/>
    </edge>
    <edge id=":5372160329_5" function="internal">
        <lane id=":5372160329_5_0" index="0" disallow="tram rail_urban rail rail_electric rail_fast ship" speed="3.65" length="1.44" shape="2176.21,544.65 2175.61,545.96"/>
    </edge>
    <edge id=":5372160329_10" function="internal">
        <lane id=":5372160329_10_0" index="0" disallow="tram rail_urban rail rail_electric rail_fast ship" speed="9.23" length="11.16" shape="2176.16,548.28 2174.99,551.28 2172.57,553.99 2168.94,556.30"/>
    </edge>
    <edge id=":5372160329_11" function="internal">
        <lane id=":5372160329_11_0" index="0" disallow="tram rail_urban rail rail_electric rail_fast ship" speed="3.65" length="3.23" shape="2175.61,545.96 2174.89,546.48 2174.04,546.22 2173.05,545.16"/>
    </edge>
    <edge id=":5372160329_6" function="internal">
        <lane id=":5372160329_6_0" index="0" disallow="tram rail_urban rail rail_electric rail_fast ship" speed="7.93" length="10.71" shape="2167.51,553.43 2170.25,551.73 2172.08,549.78 2173.02,547.59 2173.05,545.16"/>
    </edge>
    <edge id=":5372160329_7" function="internal">
        <lane id=":5372160329_7_0" index="0" disallow="tram rail_urban rail rail_electric rail_fast ship" speed="7.58" length="15.42" shape="2167.51,553.43 2171.71,552.04 2174.97,552.52 2177.28,554.86 2178.65,559.06"/>
    </edge>
    <edge id=":5372160329_8" function="internal">
        <lane id=":5372160329_8_0" index="0" disallow="tram rail_urban rail rail_electric rail_fast ship" speed="3.65" length="4.67" shape="2167.51,553.43 2168.94,553.61 2169.66,554.15 2169.66,555.05 2168.94,556.30"/>
    </edge>
    <edge id=":5372179473_0" function="internal">
        <lane id=":5372179473_0_0" index="0" disallow="tram rail_urban rail rail_electric rail_fast ship" speed="6.32" length="9.04" shape="2188.66,638.36 2187.86,635.98 2186.49,634.51 2184.57,633.93 2182.08,634.25"/>
    </edge>
    <edge id=":5372179473_1" function="internal">
        <lane id=":5372179473_1_0" index="0" disallow="tram rail_urban rail rail_electric rail_fast ship" speed="13.89" length="14.37" shape="2188.66,638.36 2186.33,624.18"/>
    </edge>
    <edge id=":5372179473_2" function="internal">
        <lane id=":5372179473_2_0" index="0" disallow="tram rail_urban rail rail_electric rail_fast ship" speed="3.65" length="1.44" shape="2188.66,638.36 2189.23,637.03"/>
    </edge>
    <edge id=":5372179473_9" function="internal">
        <lane id=":5372179473_9_0" index="0" disallow="tram rail_urban rail rail_electric rail_fast ship" speed="3.65" length="3.23" shape="2189.23,637.03 2189.94,636.50 2190.80,636.74 2191.81,637.78"/>
    </edge>
    <edge id=":5372179473_3" function="internal">
        <lane id=":5372179473_3_0" index="0" disallow="tram rail_urban rail rail_electric rail_fast ship" speed="13.89" length="14.24" shape="2189.50,623.73 2191.81,637.78"/>
    </edge>
    <edge id=":5372179473_4" function="internal">
        <lane id=":5372179473_4_0" index="0" disallow="tram rail_urban rail rail_electric rail_fast ship" speed="8.43" length="3.71" shape="2189.50,623.73 2189.47,627.44"/>
    </edge>
    <edge id=":5372179473_5" function="internal">
        <lane id=":5372179473_5_0" index="0" disallow="tram rail_urban rail rail_electric rail_fast ship" speed="3.65" length="1.44" shape="2189.50,623.73 2188.87,625.03"/>
    </edge>
    <edge id=":5372179473_10" function="internal">
        <lane id=":5372179473_10_0" index="0" disallow="tram rail_urban rail rail_electric rail_fast ship" speed="8.43" length="10.58" shape="2189.47,627.44 2188.22,630.42 2185.76,632.70 2182.08,634.25"/>
    </edge>
    <edge id=":5372179473_11" function="internal">
        <lane id=":5372179473_11_0" index="0" disallow="tram rail_urban rail rail_electric rail_fast ship" speed="3.65" length="3.23" shape="2188.87,625.03 2188.14,625.54 2187.29,625.26 2186.33,624.18"/>
    </edge>
    <edge id=":5372179473_6" function="internal">
        <lane id=":5372179473_6_0" index="0" disallow="tram rail_urban rail rail_electric rail_fast ship" speed="7.02" length="9.60" shape="2181.22,631.17 2183.74,630.12 2185.43,628.60 2186.30,626.62 2186.33,624.18"/>
    </edge>
    <edge id=":5372179473_7" function="internal">
        <lane id=":5372179473_7_0" index="0" disallow="tram rail_urban rail rail_electric rail_fast ship" speed="7.85" length="14.54" shape="2181.22,631.17 2185.22,630.65 2188.32,631.58 2190.52,633.95 2191.81,637.78"/>
    </edge>
    <edge id=":5372179473_8" function="internal">
        <lane id=":5372179473_8_0" index="0" disallow="tram rail_urban rail rail_electric rail_fast ship" speed="3.65" length="4.67" shape="2181.22,631.17 2182.59,631.62 2183.19,632.28 2183.02,633.16 2182.08,634.25"/>
    </edge>
    <edge id=":5818851887_0" function="internal">
        <lane id=":5818851887_0_0" index="0" allow="private emergency authority army vip passenger hov taxi bus coach delivery truck trailer motorcycle evehicle custom1 custom2" speed="22.22" length="0.10" shape="2585.08,794.53 2585.08,794.53"/>
    </edge>
    <edge id=":5818851888_0" function="internal">
        <lane id=":5818851888_0_0" index="0" allow="private emergency authority army vip passenger hov taxi bus coach delivery truck trailer motorcycle evehicle custom1 custom2" speed="22.22" length="0.10" shape="2605.52,814.66 2605.52,814.66"/>
    </edge>
    <edge id=":5818851889_0" function="internal">
        <lane id=":5818851889_0_0" index="0" allow="private emergency authority army vip passenger hov taxi bus coach delivery truck trailer motorcycle evehicle custom1 custom2" speed="22.22" length="0.26" shape="2763.63,963.08 2763.44,962.90"/>
    </edge>
    <edge id=":5818851890_0" function="internal">
        <lane id=":5818851890_0_0" index="0" allow="private emergency authority army vip passenger hov taxi bus coach delivery truck trailer motorcycle evehicle custom1 custom2" speed="22.22" length="0.10" shape="2741.91,943.32 2741.91,943.32"/>
    </edge>
    <edge id=":5818851901_0" function="internal">
        <lane id=":5818851901_0_0" index="0" disallow="tram rail_urban rail rail_electric rail_fast ship" speed="13.89" length="0.28" shape="2730.02,1301.87 2730.01,1301.59"/>
    </edge>
    <edge id=":5818851901_1" function="internal">
        <lane id=":5818851901_1_0" index="0" disallow="tram rail_urban rail rail_electric rail_fast ship" speed="13.89" length="0.31" shape="2733.21,1301.49 2733.22,1301.80"/>
    </edge>
    <edge id=":5818851902_0" function="internal">
        <lane id=":5818851902_0_0" index="0" disallow="tram rail_urban rail rail_electric rail_fast ship" speed="13.89" length="0.30" shape="2728.79,1261.29 2728.78,1260.99"/>
    </edge>
    <edge id=":5818851902_1" function="internal">
        <lane id=":5818851902_1_0" index="0" disallow="tram rail_urban rail rail_electric rail_fast ship" speed="13.89" length="0.30" shape="2731.98,1260.90 2731.99,1261.19"/>
    </edge>
    <edge id=":5818851903_0" function="internal">
        <lane id=":5818851903_0_0" index="0" disallow="pedestrian bicycle tram rail_urban rail rail_electric rail_fast ship" speed="19.44" length="20.70" shape="2756.56,1125.09 2776.71,1129.42"/>
        <lane id=":5818851903_0_1" index="1" disallow="pedestrian bicycle tram rail_urban rail rail_electric rail_fast ship" speed="19.44" length="20.70" shape="2755.95,1128.23 2776.15,1132.57"/>
        <lane id=":5818851903_0_2" index="2" disallow="pedestrian bicycle tram rail_urban rail rail_electric rail_fast ship" speed="19.44" length="20.70" shape="2755.33,1131.37 2775.59,1135.72"/>
        <lane id=":5818851903_0_3" index="3" disallow="pedestrian bicycle tram rail_urban rail rail_electric rail_fast ship" speed="19.44" length="20.70" shape="2754.71,1134.51 2775.03,1138.88"/>
    </edge>
    <edge id=":5818851903_4" function="internal">
        <lane id=":5818851903_4_0" index="0" disallow="pedestrian bicycle tram rail_urban rail rail_electric rail_fast ship" speed="20.83" length="21.17" shape="2754.37,1138.55 2758.31,1137.79 2762.90,1136.39 2768.53,1135.36 2775.59,1135.72"/>
        <lane id=":5818851903_4_1" index="1" disallow="pedestrian bicycle tram rail_urban rail rail_electric rail_fast ship" speed="20.83" length="21.17" shape="2754.37,1138.55 2758.28,1138.30 2762.76,1137.99 2768.22,1138.05 2775.03,1138.88"/>
    </edge>
    <edge id=":5818851908_0" function="internal">
        <lane id=":5818851908_0_0" index="0" disallow="pedestrian bicycle tram rail_urban rail rail_electric rail_fast ship" speed="17.77" length="10.79" shape="2724.01,1166.42 2723.89,1163.41 2724.50,1161.23 2725.52,1159.09 2726.66,1156.16"/>
    </edge>
    <edge id=":5818851908_1" function="internal">
        <lane id=":5818851908_1_0" index="0" disallow="tram rail_urban rail rail_electric rail_fast ship" speed="3.65" length="4.67" shape="2724.01,1166.42 2724.62,1165.11 2725.34,1164.60 2726.20,1164.87 2727.17,1165.93"/>
    </edge>
    <edge id=":5818851908_2" function="internal">
        <lane id=":5818851908_2_0" index="0" disallow="pedestrian bicycle tram rail_urban rail rail_electric rail_fast ship" speed="5.19" length="8.20" shape="2721.51,1158.22 2722.99,1159.87 2724.33,1160.07 2725.56,1158.84 2726.66,1156.16"/>
    </edge>
    <edge id=":5818851908_3" function="internal">
        <lane id=":5818851908_3_0" index="0" disallow="pedestrian bicycle tram rail_urban rail rail_electric rail_fast ship" speed="18.05" length="9.79" shape="2721.51,1158.22 2723.39,1160.45 2725.04,1161.81 2726.34,1163.30 2727.17,1165.93"/>
    </edge>
    <edge id=":5818851912_0" function="internal">
        <lane id=":5818851912_0_0" index="0" disallow="pedestrian bicycle tram rail_urban rail rail_electric rail_fast ship" speed="19.44" length="19.39" shape="2675.12,1109.00 2694.17,1112.84"/>
        <lane id=":5818851912_0_1" index="1" disallow="pedestrian bicycle tram rail_urban rail rail_electric rail_fast ship" speed="19.44" length="19.39" shape="2674.53,1112.14 2693.55,1115.98"/>
        <lane id=":5818851912_0_2" index="2" disallow="pedestrian bicycle tram rail_urban rail rail_electric rail_fast ship" speed="19.44" length="19.39" shape="2673.95,1115.29 2692.94,1119.12"/>
        <lane id=":5818851912_0_3" index="3" disallow="pedestrian bicycle tram rail_urban rail rail_electric rail_fast ship" speed="19.44" length="19.39" shape="2673.36,1118.44 2692.32,1122.26"/>
    </edge>
    <edge id=":5818851912_4" function="internal">
        <lane id=":5818851912_4_0" index="0" disallow="pedestrian bicycle tram rail_urban rail rail_electric rail_fast ship" speed="20.83" length="19.35" shape="2673.36,1118.44 2679.46,1120.08 2684.00,1122.17 2687.59,1124.38 2690.85,1126.37"/>
    </edge>
    <edge id=":5818852002_0" function="internal">
        <lane id=":5818852002_0_0" index="0" disallow="pedestrian bicycle tram rail_urban rail rail_electric rail_fast ship" speed="19.44" length="18.39" shape="2259.13,1022.84 2277.12,1026.71"/>
        <lane id=":5818852002_0_1" index="1" disallow="pedestrian bicycle tram rail_urban rail rail_electric rail_fast ship" speed="19.44" length="18.39" shape="2258.46,1025.97 2276.44,1029.84"/>
        <lane id=":5818852002_0_2" index="2" disallow="pedestrian bicycle tram rail_urban rail rail_electric rail_fast ship" speed="19.44" length="18.39" shape="2257.78,1029.09 2275.76,1032.97"/>
        <lane id=":5818852002_0_3" index="3" disallow="pedestrian bicycle tram rail_urban rail rail_electric rail_fast ship" speed="19.44" length="18.39" shape="2257.11,1032.22 2275.08,1036.09"/>
    </edge>
    <edge id=":5818852002_4" function="internal">
        <lane id=":5818852002_4_0" index="0" allow="private emergency authority army vip passenger hov taxi bus coach delivery truck trailer motorcycle evehicle custom1 custom2" speed="20.83" length="19.12" shape="2256.81,1037.03 2260.51,1035.70 2264.57,1033.86 2269.49,1032.60 2275.76,1032.97"/>
        <lane id=":5818852002_4_1" index="1" allow="private emergency authority army vip passenger hov taxi bus coach delivery truck trailer motorcycle evehicle custom1 custom2" speed="20.83" length="19.12" shape="2256.81,1037.03 2260.48,1036.20 2264.43,1035.47 2269.14,1035.28 2275.08,1036.09"/>
    </edge>
    <edge id=":5818852019_0" function="internal">
        <lane id=":5818852019_0_0" index="0" allow="private emergency authority army vip passenger hov taxi bus coach delivery truck trailer motorcycle evehicle custom1 custom2" speed="33.33" length="19.70" shape="2415.96,1182.93 2412.98,1202.40"/>
        <lane id=":5818852019_0_1" index="1" allow="private emergency authority army vip passenger hov taxi bus coach delivery truck trailer motorcycle evehicle custom1 custom2" speed="33.33" length="19.70" shape="2412.80,1182.45 2409.82,1201.92"/>
        <lane id=":5818852019_0_2" index="2" allow="private emergency authority army vip passenger hov taxi bus coach delivery truck trailer motorcycle evehicle custom1 custom2" speed="33.33" length="19.70" shape="2409.63,1181.96 2406.66,1201.44"/>
    </edge>
    <edge id=":5818852019_3" function="internal">
        <lane id=":5818852019_3_0" index="0" allow="private emergency authority army vip passenger hov taxi bus coach delivery truck trailer motorcycle evehicle custom1 custom2" speed="27.78" length="19.69" shape="2409.63,1181.96 2408.20,1188.26 2406.32,1193.01 2404.34,1196.80 2402.56,1200.21"/>
    </edge>
    <edge id=":5818852020_0" function="internal">
        <lane id=":5818852020_0_0" index="0" allow="private emergency authority army vip passenger hov taxi bus coach delivery truck trailer motorcycle evehicle custom1 custom2" speed="33.33" length="24.04" shape="2431.04,1226.60 2435.48,1203.03"/>
        <lane id=":5818852020_0_1" index="1" allow="private emergency authority army vip passenger hov taxi bus coach delivery truck trailer motorcycle evehicle custom1 custom2" speed="33.33" length="24.04" shape="2434.20,1227.14 2438.64,1203.52"/>
        <lane id=":5818852020_0_2" index="2" allow="private emergency authority army vip passenger hov taxi bus coach delivery truck trailer motorcycle evehicle custom1 custom2" speed="33.33" length="24.04" shape="2437.35,1227.67 2441.80,1204.00"/>
    </edge>
    <edge id=":5818852020_3" function="internal">
        <lane id=":5818852020_3_0" index="0" allow="private emergency authority army vip passenger hov taxi bus coach delivery truck trailer motorcycle evehicle custom1 custom2" speed="27.78" length="24.44" shape="2441.32,1228.01 2440.59,1223.79 2439.24,1218.45 2438.25,1211.78 2438.64,1203.52"/>
        <lane id=":5818852020_3_1" index="1" allow="private emergency authority army vip passenger hov taxi bus coach delivery truck trailer motorcycle evehicle custom1 custom2" speed="27.78" length="24.44" shape="2441.32,1228.01 2441.09,1223.82 2440.84,1218.58 2440.94,1212.06 2441.80,1204.00"/>
    </edge>
    <edge id=":5818852039_0" function="internal">
        <lane id=":5818852039_0_0" index="0" disallow="pedestrian bicycle tram rail_urban rail rail_electric rail_fast ship" speed="19.44" length="15.36" shape="2573.36,1088.97 2588.40,1092.15"/>
        <lane id=":5818852039_0_1" index="1" disallow="pedestrian bicycle tram rail_urban rail rail_electric rail_fast ship" speed="19.44" length="15.36" shape="2572.71,1092.10 2587.74,1095.28"/>
        <lane id=":5818852039_0_2" index="2" disallow="pedestrian bicycle tram rail_urban rail rail_electric rail_fast ship" speed="19.44" length="15.36" shape="2572.06,1095.23 2587.08,1098.41"/>
        <lane id=":5818852039_0_3" index="3" disallow="pedestrian bicycle tram rail_urban rail rail_electric rail_fast ship" speed="19.44" length="15.36" shape="2571.41,1098.37 2586.42,1101.54"/>
    </edge>
    <edge id=":5818852039_4" function="internal">
        <lane id=":5818852039_4_0" index="0" allow="private emergency authority army vip passenger hov taxi bus coach delivery truck trailer motorcycle evehicle custom1 custom2" speed="20.83" length="15.15" shape="2571.41,1098.37 2575.87,1099.98 2578.90,1102.13 2581.46,1104.22 2584.52,1105.65"/>
    </edge>
    <edge id=":5818852040_0" function="internal">
        <lane id=":5818852040_0_0" index="0" disallow="pedestrian bicycle tram rail_urban rail rail_electric rail_fast ship" speed="19.44" length="30.35" shape="2973.32,1159.39 3003.32,1163.74"/>
        <lane id=":5818852040_0_1" index="1" disallow="pedestrian bicycle tram rail_urban rail rail_electric rail_fast ship" speed="19.44" length="30.35" shape="2972.88,1162.56 3002.90,1166.91"/>
        <lane id=":5818852040_0_2" index="2" disallow="pedestrian bicycle tram rail_urban rail rail_electric rail_fast ship" speed="19.44" length="30.35" shape="2972.43,1165.73 3002.49,1170.09"/>
        <lane id=":5818852040_0_3" index="3" disallow="pedestrian bicycle tram rail_urban rail rail_electric rail_fast ship" speed="19.44" length="30.35" shape="2971.99,1168.90 3002.07,1173.26"/>
    </edge>
    <edge id=":5818852040_4" function="internal">
        <lane id=":5818852040_4_0" index="0" allow="private emergency authority army vip passenger hov taxi bus coach delivery truck trailer motorcycle evehicle custom1 custom2" speed="20.83" length="30.56" shape="2971.83,1172.41 2976.58,1171.89 2983.31,1170.61 2991.97,1169.65 3002.49,1170.09"/>
        <lane id=":5818852040_4_1" index="1" allow="private emergency authority army vip passenger hov taxi bus coach delivery truck trailer motorcycle evehicle custom1 custom2" speed="20.83" length="30.56" shape="2971.83,1172.41 3002.07,1173.26"/>
    </edge>
    <edge id=":5818852058_0" function="internal">
        <lane id=":5818852058_0_0" index="0" allow="private emergency authority army vip passenger hov taxi bus coach delivery truck trailer motorcycle evehicle custom1 custom2" speed="27.78" length="73.90" shape="2499.76,604.81 2494.40,531.12"/>
        <lane id=":5818852058_0_1" index="1" allow="private emergency authority army vip passenger hov taxi bus coach delivery truck trailer motorcycle evehicle custom1 custom2" speed="27.78" length="73.90" shape="2499.76,604.81 2497.60,530.94"/>
    </edge>
    <edge id=":5818852058_2" function="internal">
        <lane id=":5818852058_2_0" index="0" allow="private emergency authority army vip passenger hov taxi bus coach delivery truck trailer motorcycle evehicle custom1 custom2" speed="33.33" length="73.72" shape="2489.77,604.75 2491.21,531.30"/>
        <lane id=":5818852058_2_1" index="1" allow="private emergency authority army vip passenger hov taxi bus coach delivery truck trailer motorcycle evehicle custom1 custom2" speed="33.33" length="73.72" shape="2492.97,604.83 2494.40,531.12"/>
        <lane id=":5818852058_2_2" index="2" allow="private emergency authority army vip passenger hov taxi bus coach delivery truck trailer motorcycle evehicle custom1 custom2" speed="33.33" length="73.72" shape="2496.17,604.90 2497.60,530.94"/>
    </edge>
    <edge id=":5818852065_0" function="internal">
        <lane id=":5818852065_0_0" index="0" allow="delivery" speed="7.78" length="6.51" shape="2878.28,1073.33 2877.25,1072.72 2875.86,1072.40 2874.11,1072.36 2871.99,1072.61"/>
    </edge>
    <edge id=":5818852065_1" function="internal">
        <lane id=":5818852065_1_0" index="0" allow="private emergency authority army vip passenger hov taxi bus coach delivery truck trailer motorcycle evehicle custom1 custom2" speed="22.22" length="6.93" shape="2878.28,1073.33 2873.23,1068.59"/>
    </edge>
    <edge id=":5818852066_0" function="internal">
        <lane id=":5818852066_0_0" index="0" disallow="pedestrian bicycle tram rail_urban rail rail_electric rail_fast ship" speed="19.44" length="14.74" shape="2998.03,1152.80 2983.42,1150.78"/>
        <lane id=":5818852066_0_1" index="1" disallow="pedestrian bicycle tram rail_urban rail rail_electric rail_fast ship" speed="19.44" length="14.74" shape="2998.45,1149.63 2983.87,1147.61"/>
    </edge>
    <edge id=":5818852066_2" function="internal">
        <lane id=":5818852066_2_0" index="0" allow="private emergency authority army vip passenger hov taxi bus coach delivery truck trailer motorcycle evehicle custom1 custom2" speed="18.22" length="14.60" shape="2998.45,1149.63 2994.04,1148.60 2990.96,1147.03 2988.46,1145.08 2985.79,1142.91"/>
    </edge>
    <edge id=":5818852067_0" function="internal">
        <lane id=":5818852067_0_0" index="0" disallow="pedestrian bicycle tram rail_urban rail rail_electric rail_fast ship" speed="19.44" length="21.89" shape="2611.59,1083.25 2590.17,1078.77"/>