<?xml version="1.0" encoding="UTF-8"?>

<!-- generated on 2023-12-06 16:18:50.400764 by randomTrips.py v1_19_0+0281-58a094b3dd6
<configuration>
    <end value="150.0"/>
    <length value="True"/>
    <net-file value="ghaziabad.net.xml"/>
    <route-file value="ghaziabad.rou.xml"/>
</configuration>
-->

<!-- generated on 2023-12-06 16:18:50 by Eclipse SUMO duarouter Version v1_19_0+0281-58a094b3dd6
<configuration xmlns:xsi="http://www.w3.org/2001/XMLSchema-instance" xsi:noNamespaceSchemaLocation="http://sumo.dlr.de/xsd/duarouterConfiguration.xsd">

    <input>
        <net-file value="ghaziabad.net.xml"/>
        <route-files value="trips.trips.xml"/>
    </input>

    <output>
        <output-file value="ghaziabad.rou.xml"/>
        <alternatives-output value="NUL"/>
    </output>

    <time>
        <begin value="0"/>
        <end value="150.0"/>
    </time>

    <report>
        <no-warnings value="true"/>
        <ignore-errors value="true"/>
        <no-step-log value="true"/>
    </report>

</configuration>
-->

<routes xmlns:xsi="http://www.w3.org/2001/XMLSchema-instance" xsi:noNamespaceSchemaLocation="http://sumo.dlr.de/xsd/routes_file.xsd">
    <vehicle id="2" depart="2.00">
        <route edges="615343981 492987592#2 492987529 492987569#0 615343976 70214405#3 70214405#4 615343969 615343970"/>
    </vehicle>
    <vehicle id="3" depart="3.00">
        <route edges="70214405#3 70214405#4 615343969 615343967 615343966 615343968 -615343968 -615343966 -615343967"/>
    </vehicle>
    <vehicle id="8" depart="8.00">
        <route edges="1070264414 1070264416#2 556969394#4"/>
    </vehicle>
    <vehicle id="10" depart="10.00">
        <route edges="70214405#0 615343975"/>
    </vehicle>
    <vehicle id="12" depart="12.00">
        <route edges="955937528 492987609#1 492987609#2 492987609#3 44365884#0 44365884#1 44365884#2 44365884#3 44365884#4"/>
    </vehicle>
    <vehicle id="15" depart="15.00">
        <route edges="70214405#0 70214405#1 70214405#2 70214405#3 615343977 492987594#1 492987428 492987601#0 615343980 44365884#2 615343981 492987592#2 492987529 492987569#0 615343976"/>
    </vehicle>
    <vehicle id="21" depart="21.00">
        <route edges="1070264416#1 -1070264416#1 1070264408 -1070264411#2 -1070264411#1 -1070264411#0 -556969394#0 615343961#1 44365884#4"/>
    </vehicle>
    <vehicle id="22" depart="22.00">
        <route edges="-1070269121 492987609#3 44365884#0 44365884#1 44365884#2 44365884#3"/>
    </vehicle>
    <vehicle id="24" depart="24.00">
        <route edges="615343977 492987594#1 492987428 492987601#0 615343980 44365884#2 615343981 492987592#2 492987529 492987569#0 492987569#1"/>
    </vehicle>
    <vehicle id="26" depart="26.00">
        <route edges="44365884#2 615343981 492987592#2 492987529 492987569#0 615343976 70214405#3 70214405#4 70214405#5 70214405#6 492987608#0 492987608#1 955937522"/>
    </vehicle>
    <vehicle id="30" depart="30.00">
        <route edges="955937528 492987609#1 492987609#2 492987609#3 615343965#0 615343965#1 615343965#2 615343965#3"/>
    </vehicle>
    <vehicle id="32" depart="32.00">
        <route edges="70214405#0 70214405#1 70214405#2 70214405#3 615343977"/>
    </vehicle>
    <vehicle id="33" depart="33.00">
        <route edges="1070264416#1 -1070264416#1"/>
    </vehicle>
    <vehicle id="34" depart="34.00">
        <route edges="492987592#0 615343983 615343958 615343959 615343960 615343961#0 615343961#1 44365884#4"/>
    </vehicle>
    <vehicle id="36" depart="36.00">
        <route edges="70214405#1 70214405#2 70214405#3 615343977 492987594#1 492987428 492987601#0 615343980 44365884#2 44365884#3 44365884#4"/>
    </vehicle>
    <vehicle id="38" depart="38.00">
        <route edges="70214405#6 492987608#0 492987608#1 492987608#2"/>
    </vehicle>
    <vehicle id="39" depart="39.00">
        <route edges="44365884#2 44365884#3"/>
    </vehicle>
    <vehicle id="43" depart="43.00">
        <route edges="955937528 492987609#1 492987609#2 492987609#3 44365884#0 44365884#1 44365884#2 615343981 492987592#2 492987529 492987569#0 615343976 70214405#3 70214405#4 70214405#5 70214405#6 492987608#0 492987608#1 492987608#2"/>
    </vehicle>
    <vehicle id="46" depart="46.00">
        <route edges="70214405#0 70214405#1 70214405#2 70214405#3 615343977 492987594#1 492987428 492987601#0 492987601#1"/>
    </vehicle>
    <vehicle id="48" depart="48.00">
        <route edges="955937528 492987609#1 492987609#2 492987609#3 44365884#0 44365884#1 44365884#2 615343981 492987592#2 492987529 492987569#0 615343976 70214405#3 70214405#4 70214405#5 70214405#6 492987608#0 492987608#1 492987608#2"/>
    </vehicle>
    <vehicle id="53" depart="53.00">
        <route edges="-1070272157 615343979#1 492987601#2"/>
    </vehicle>
    <vehicle id="54" depart="54.00">
        <route edges="492987609#0 492987609#1 492987609#2 492987609#3 44365884#0 44365884#1 44365884#2 615343981 492987592#2 492987529 492987569#0 615343976 70214405#3 70214405#4 70214405#5 70214405#6 492987608#0 492987608#1 955937522"/>
    </vehicle>
    <vehicle id="55" depart="55.00">
        <route edges="70214405#1 70214405#2 70214405#3 615343977 492987594#1 492987428 492987601#0 615343980 44365884#2 44365884#3 44365884#4"/>
    </vehicle>
    <vehicle id="62" depart="62.00">
        <route edges="-1070264408 1070264408 -1070264411#2 -1070264411#1 -1070264411#0 -556969394#0 615343961#1 44365884#4"/>
    </vehicle>
    <vehicle id="64" depart="64.00">
        <route edges="70214405#1 70214405#2 70214405#3 615343977 492987594#1 492987428 492987601#0 615343980 44365884#2 615343981"/>
    </vehicle>
    <vehicle id="65" depart="65.00">
        <route edges="492987592#0 615343983 615343958 615343959 615343960 615343961#0 556969394#0 556969394#1 556969394#2 -556969394#2"/>
    </vehicle>
    <vehicle id="66" depart="66.00">
        <route edges="70214405#1 70214405#2 70214405#3 70214405#4 70214405#5 70214405#6 492987608#0 492987608#1 955937522"/>
    </vehicle>
    <vehicle id="68" depart="68.00">
        <route edges="-1070269121 492987609#3 44365884#0 44365884#1 44365884#2 615343981 492987592#2 492987529 492987569#0 615343976 70214405#3 615343977"/>
    </vehicle>
    <vehicle id="72" depart="72.00">
        <route edges="492987609#0 492987609#1 492987609#2 492987609#3 44365884#0 44365884#1"/>
    </vehicle>
    <vehicle id="74" depart="74.00">
        <route edges="1070264410#0 1070264410#1 1070264411#4 -556969394#1 -556969394#0 615343961#1 44365884#4"/>
    </vehicle>
    <vehicle id="75" depart="75.00">
        <route edges="955937528 492987609#1 492987609#2 492987609#3 44365884#0 44365884#1 44365884#2 615343981 492987592#2 492987529 492987569#0 615343976 70214405#3 70214405#4 615343969 615343967"/>
    </vehicle>
    <vehicle id="76" depart="76.00">
        <route edges="492987609#0 492987609#1 492987609#2 492987609#3 44365884#0 44365884#1 44365884#2 615343981 492987592#2 492987529 492987569#0 615343976 70214405#3 70214405#4 70214405#5 70214405#6 492987608#0 492987608#1 492987608#2"/>
    </vehicle>
    <vehicle id="80" depart="80.00">
        <route edges="-1070269121 492987609#3 615343965#0 615343965#1 615343965#2 615343965#3 615343964 615343963"/>
    </vehicle>
    <vehicle id="86" depart="86.00">
        <route edges="492987609#0 492987609#1 492987609#2 492987609#3 615343965#0 615343965#1 615343965#2 615343965#3 615343964 615343963 615343962 615343979#0 615343979#1"/>
    </vehicle>
    <vehicle id="88" depart="88.00">
        <route edges="-1070272157 615343979#1 492987601#2"/>
    </vehicle>
    <vehicle id="89" depart="89.00">
        <route edges="492987609#0 492987609#1 492987609#2 492987609#3 44365884#0 44365884#1 44365884#2 615343981 492987592#2 492987529 492987569#0 615343976 70214405#3 70214405#4 70214405#5 70214405#6 492987608#0 492987608#1 492987608#2"/>
    </vehicle>
    <vehicle id="90" depart="90.00">
        <route edges="615343981 492987592#2 492987529 492987569#0 615343976 70214405#3 70214405#4 615343969"/>
    </vehicle>
    <vehicle id="93" depart="93.00">
        <route edges="70214405#0 70214405#1 70214405#2 70214405#3 615343977 492987594#1 492987428 492987601#0 615343980 44365884#2 44365884#3"/>
    </vehicle>
    <vehicle id="94" depart="94.00">
        <route edges="-615343968 -615343966 -615343967 615343970 70214405#6 492987608#0 492987608#1"/>
    </vehicle>
    <vehicle id="95" depart="95.00">
        <route edges="492987609#0 492987609#1 492987609#2 492987609#3 44365884#0 44365884#1 44365884#2 44365884#3 44365884#4"/>
    </vehicle>
    <vehicle id="96" depart="96.00">
        <route edges="44365884#0 44365884#1 44365884#2 615343981 492987592#2 492987529 492987569#0 615343976 70214405#3 70214405#4 70214405#5 70214405#6"/>
    </vehicle>
    <vehicle id="98" depart="98.00">
        <route edges="615343961#0 556969394#0 556969394#1 -556969394#1"/>
    </vehicle>
    <vehicle id="99" depart="99.00">
        <route edges="955937528 492987609#1 492987609#2 492987609#3 44365884#0 44365884#1 44365884#2 615343981"/>
    </vehicle>
    <vehicle id="100" depart="100.00">
        <route edges="955937528 492987609#1 492987609#2 492987609#3 44365884#0 44365884#1 44365884#2 615343981 492987592#2 492987529 492987569#0 615343976 70214405#3 70214405#4 70214405#5 70214405#6 492987608#0 492987608#1 955937522"/>
    </vehicle>
    <vehicle id="102" depart="102.00">
        <route edges="492987609#2 492987609#3 44365884#0 44365884#1"/>
    </vehicle>
    <vehicle id="106" depart="106.00">
        <route edges="492987609#0 492987609#1 492987609#2 492987609#3 44365884#0 44365884#1 44365884#2 615343981 492987592#2 492987529 492987569#0 615343976 70214405#3 615343977 492987594#1 492987428 492987601#0 492987601#1"/>
    </vehicle>
    <vehicle id="107" depart="107.00">
        <route edges="955937528 492987609#1 492987609#2 492987609#3 44365884#0 44365884#1 44365884#2 615343981 492987592#2 492987529 492987569#0 615343976 70214405#3 70214405#4 70214405#5 70214405#6 492987608#0 492987608#1 955937522"/>
    </vehicle>
    <vehicle id="109" depart="109.00">
        <route edges="-556969394#4 -556969394#3 -556969394#2 -556969394#1 -556969394#0 615343961#1 44365884#4"/>
    </vehicle>
    <vehicle id="115" depart="115.00">
        <route edges="-1070269121 492987609#3 615343965#0 615343965#1 615343965#2 615343965#3 615343964 615343963 615343962 615343979#0 1070272157"/>
    </vehicle>
    <vehicle id="116" depart="116.00">
        <route edges="615343976 70214405#3 70214405#4 615343969"/>
    </vehicle>
    <vehicle id="117" depart="117.00">
        <route edges="1070264416#2"/>
    </vehicle>
    <vehicle id="118" depart="118.00">
        <route edges="70214405#2 70214405#3 615343977 492987594#1 492987428 492987601#0 615343980 44365884#2 44365884#3"/>
    </vehicle>
    <vehicle id="125" depart="125.00">
        <route edges="492987592#0 492987592#1 492987592#2 492987529 492987569#0 615343976 70214405#3 615343977"/>
    </vehicle>
    <vehicle id="126" depart="126.00">
        <route edges="-1070269121 492987609#3 44365884#0 44365884#1 44365884#2 615343981 492987592#2 492987529 492987569#0 615343976 70214405#3 70214405#4 70214405#5 70214405#6 492987608#0 492987608#1 492987608#2"/>
    </vehicle>
    <vehicle id="127" depart="127.00">
        <route edges="955937528 492987609#1 492987609#2 492987609#3 44365884#0 44365884#1 44365884#2 615343981 492987592#2 492987529 492987569#0 615343976 70214405#3 70214405#4 70214405#5 70214405#6 492987608#0 492987608#1 955937522"/>
    </vehicle>
    <vehicle id="128" depart="128.00">
        <route edges="-1070269121 492987609#3 44365884#0 44365884#1"/>
    </vehicle>
    <vehicle id="129" depart="129.00">
        <route edges="44365884#2 615343981 492987592#2 492987529 492987569#0 615343976 70214405#3 70214405#4 70214405#5 70214405#6 492987608#0 492987608#1 955937522"/>
    </vehicle>
    <vehicle id="130" depart="130.00">
        <route edges="70214405#1"/>
    </vehicle>
    <vehicle id="132" depart="132.00">
        <route edges="70214405#0 615343975"/>
    </vehicle>
    <vehicle id="133" depart="133.00">
        <route edges="615343976 70214405#3 70214405#4 70214405#5 70214405#6 492987608#0 492987608#1 955937522"/>
    </vehicle>
    <vehicle id="135" depart="135.00">
        <route edges="70214405#0 70214405#1 70214405#2 70214405#3 615343977 492987594#1 492987428 492987601#0 615343980 44365884#2 44365884#3 44365884#4"/>
    </vehicle>
    <vehicle id="136" depart="136.00">
        <route edges="615343978 492987608#0 492987608#1 955937522"/>
    </vehicle>
    <vehicle id="137" depart="137.00">
        <route edges="-556969394#2 -1070264411#4 -1070264411#3 -1070264408 1070264416#1 1070264416#2"/>
    </vehicle>
    <vehicle id="141" depart="141.00">
        <route edges="615343977 492987594#1 492987428 492987601#0 615343980 44365884#2 44365884#3 44365884#4"/>
    </vehicle>
    <vehicle id="142" depart="142.00">
        <route edges="492987609#3 44365884#0 44365884#1 44365884#2 615343981 492987592#2 492987529 492987569#0 615343976 70214405#3"/>
    </vehicle>
    <vehicle id="144" depart="144.00">
        <route edges="492987609#0 492987609#1 492987609#2 492987609#3 44365884#0 44365884#1 44365884#2 44365884#3 44365884#4"/>
    </vehicle>
    <vehicle id="146" depart="146.00">
        <route edges="615343977 492987594#1 492987428 492987601#0 615343980 44365884#2 44365884#3 44365884#4"/>
    </vehicle>
</routes>
